PowerFlow/output.txt
====================================================================
===================牛顿——拉夫逊法潮流计算的程序===================
====作者：卢熠猛====电实践1301====201301001217=====2016年1月20日====
====================================================================
********************************************************************
******************************程序开始******************************
**************************潮流上机输入数据**************************
节点总数: 3    支路总数: 2
支路数据:
节点序号 节点序号 电阻    电抗    电导    电纳   非标变比
1        2        0.0400  0.1200  0.0000  0.0000  1.0000
1        3        0.0400  0.1200  0.0000  0.0000  1.0000
********************************************************************
节点数据:
节点序号     有功功率   无功功率   电压实部  电压虚部    节点类型
1            -0.4000    -0.1500    1.0000    0.0000      1
2            -0.4000    -0.1500    1.0000    0.0000      1
3            0.0000    0.0000    1.0000    0.0000      3
PQ节点总数： 2  PV节点总数： 0  平衡节点总数： 1
********************************************************************
**************************节点导纳矩阵**************************
| 5.000000+j-15.000000  -2.500000+j7.500000  -2.500000+j7.500000 |
| -2.500000+j7.500000  2.500000+j-7.500000  0.000000+j0.000000 |
| -2.500000+j7.500000  0.000000+j0.000000  2.500000+j-7.500000 |
********************************************************************
***************************第1次迭代结果**************************
----------------------------计算不平衡量---------------------------
Delta_P1=-0.400000   Delta_Q1=-0.150000
Delta_P2=-0.400000   Delta_Q2=-0.150000
----------------------------计算雅可比矩阵---------------------------
| 15.0000  5.0000  -7.5000  -2.5000 |
| -5.0000  15.0000  2.5000  -7.5000 |
| -7.5000  -2.5000  7.5000  2.5000 |
| 2.5000  -7.5000  -2.5000  7.5000 |
-------------------------LU分解法求解方程组--------------------------
LU矩阵：
| 15.0000  5.0000  -7.5000  -2.5000 |
| -0.3333  16.6667  0.0000  -8.3333 |
| -0.5000  0.0000  3.7500  1.2500 |
| 0.1667  -0.5000  -0.3333  4.1667 |
求解结果：
Delta_f1=-0.084000
Delta_e1=-0.068000
Delta_f2=-0.126000
Delta_e2=-0.102000
修正电压值：
U1=0.932000+j-0.084000
U2=0.898000+j-0.126000
***************************第2次迭代结果**************************
----------------------------计算不平衡量---------------------------
Delta_P1=-0.014600   Delta_Q1=-0.043800
Delta_P2=-0.021900   Delta_Q2=-0.065700
----------------------------计算雅可比矩阵---------------------------
| 13.7100  5.5200  -6.7800  -2.9600 |
| -6.3200  13.4100  2.9600  -6.7800 |
| -6.4200  -3.1900  6.5700  2.7900 |
| 3.1900  -6.4200  -3.5900  6.2700 |
-------------------------LU分解法求解方程组--------------------------
LU矩阵：
| 13.7100  5.5200  -6.7800  -2.9600 |
| -0.4610  15.9546  -0.1654  -8.1445 |
| -0.4683  -0.0379  3.3888  1.0950 |
| 0.2327  -0.4829  -0.6174  3.7019 |
求解结果：
Delta_f1=-0.000000
Delta_e1=-0.017731
Delta_f2=0.000175
Delta_e2=-0.028534
修正电压值：
U1=0.914269+j-0.084000
U2=0.869466+j-0.125825
***************************第3次迭代结果**************************
----------------------------计算不平衡量---------------------------
Delta_P1=-0.000330   Delta_Q1=-0.000914
Delta_P2=-0.000748   Delta_Q2=-0.002320
----------------------------计算雅可比矩阵---------------------------
| 13.4956  5.4127  -6.6470  -2.9157 |
| -6.2500  13.0925  2.9157  -6.6470 |
| -6.2064  -3.1174  6.4379  2.6917 |
| 3.1174  -6.2064  -3.5431  5.9750 |
-------------------------LU分解法求解方程组--------------------------
LU矩阵：
| 13.4956  5.4127  -6.6470  -2.9157 |
| -0.4631  15.5992  -0.1627  -7.9973 |
| -0.4599  -0.0403  3.3745  1.0288 |
| 0.2310  -0.4780  -0.6180  3.4614 |
求解结果：
Delta_f1=0.000000
Delta_e1=-0.000562
Delta_f2=0.000015
Delta_e2=-0.000964
修正电压值：
U1=0.913706+j-0.084000
U2=0.868502+j-0.125811
***************************第4次迭代结果**************************
----------------------------计算不平衡量---------------------------
Delta_P1=-0.000000   Delta_Q1=0.000000
Delta_P2=-0.000001   Delta_Q2=-0.000003
----------------------------计算雅可比矩阵---------------------------
| 13.4883  5.4094  -6.6428  -2.9143 |
| -6.2477  13.0829  2.9143  -6.6428 |
| -6.1992  -3.1148  6.4337  2.6882 |
| 3.1148  -6.1992  -3.5414  5.9647 |
-------------------------LU分解法求解方程组--------------------------
LU矩阵：
| 13.4883  5.4094  -6.6428  -2.9143 |
| -0.4632  15.5885  -0.1626  -7.9927 |
| -0.4596  -0.0403  3.3741  1.0265 |
| 0.2309  -0.4778  -0.6180  3.4531 |
求解结果：
Delta_f1=-0.000000
Delta_e1=-0.000001
Delta_f2=-0.000000
Delta_e2=-0.000001
修正电压值：
U1=0.913706+j-0.084000
U2=0.868501+j-0.125811
---------------------------结果----------------------------
各节点电压值：
U1=0.913706+j-0.084000
U2=0.868501+j-0.125811
U3=1.000000+j0.000000
平衡节点功率：0.845736+j0.437207
节点1与节点2之间的功率为：0.427040+j0.369451
节点1与节点3之间的功率为：-0.844759+j-0.712193
节点2与节点1之间的功率为：-0.426301+j-0.331564
节点2与节点3之间的功率为：0.000000+j0.000000
节点3与节点1之间的功率为：0.845736+j0.857207
节点3与节点2之间的功率为：0.000000+j0.000000
节点1与节点2之间的线路损耗为：0.000738+j0.037887
节点1与节点3之间的线路损耗为：0.000977+j0.145014
节点2与节点3之间的线路损耗为：0.000000+j0.000000
========================潮流计算结束=========================
